/*--------------------------------*- C++ -*----------------------------------*\
|                                                                             |
|                Generated by the CfdOF workbench for FreeCAD                 |
|                      https://github.com/jaheyns/CfdOF                       |
|                                                                             |
\*---------------------------------------------------------------------------*/
FoamFile
{
    version     2.0;
    format      ascii;
    class       dictionary;
    object      turbulenceProperties;
}
// * * * * * * * * * * * * * * * * * * * * * * * * * * * * * * * * * * * * * //

FoamFile
{
    version     2.0;
    format      ascii;
    class       dictionary;
    object      turbulenceProperties;
}

simulationType LES;

LES
{
    delta
    {
        type            cubeRootVol;
    }

    subGridModel
    {
        type            dynamicSmagorinsky;
        SmagorinskyCoeffs
        {
            Cs           0.1; // Smagorinsky coefficient
            filter       simple;
            filterCoeffs
            {
                filterDelta   2.0;
            }
        }
        dynamicSmagorinskyCoeffs
        {
            updateInterval   200;
        }
        alphatModel
        {
            type            none;
        }
        nutModel
        {
            type            laminar;
        }
        dynamicWallSmagorinskyCoeffs
        {
            CsWall          0.1;
            writeCs         no;
            wallEVariables
            {
                eTilda      1.088;
                alphaw      3.0;
                DeltaCS     0.1;
                csMax       0.5;
            }
        }
        wallModel
        {
            type            dynamicWallSmagorinsky;
        }
    }
}
