/*--------------------------------*- C++ -*----------------------------------*\
|                                                                             |
|                Generated by the CfdOF workbench for FreeCAD                 |
|                      https://github.com/jaheyns/CfdOF                       |
|                                                                             |
\*---------------------------------------------------------------------------*/
FoamFile
{
    version     4.0;
    format      ascii;
    class       dictionary;
    location    "system";
    object      extrudeMeshDict;
}
// * * * * * * * * * * * * * * * * * * * * * * * * * * * * * * * * * * * * * //

sourceCase          "./";
sourcePatches       (patch_5_2);
constructFrom       patch;
exposedPatchName    patch_5_2;

flipNormals         false;

extrudeModel        linearNormal;
nLayers             1;
expansionRatio      1.0;
linearNormalCoeffs
{
    thickness       0.005;
}

mergeTol            1e-6;
mergeFaces          false;

// * * * * * * * * * * * * * * * * * * * * * * * * * * * * * * * * * * * * * //
