/*--------------------------------*- C++ -*----------------------------------*\
|                                                                             |
|                Generated by the CfdOF workbench for FreeCAD                 |
|                      https://github.com/jaheyns/CfdOF                       |
|                                                                             |
\*---------------------------------------------------------------------------*/
FoamFile
{
    version     2.0;
    format      ascii;
    class       volScalarField;
    object      nut;
}
// * * * * * * * * * * * * * * * * * * * * * * * * * * * * * * * * * * * * * //

dimensions      [0 2 -1 0 0 0 0];

internalField   uniform 50.0;

boundaryField
{

    inlet
    {
        type        fixedValue;
        value       uniform 50.0;
    }

    open
    {
        type        calculated;
        value       $internalField;
    }

    outlet
    {
        type        calculated;
        value       $internalField;
    }

    bullet
    {
        type        nutUSpaldingWallFunction;
        value       uniform 0;
    }

    defaultFaces
    {
        type        zeroGradient;
    }

}

// ************************************************************************* //
