/*--------------------------------*- C++ -*----------------------------------*\
|                                                                             |
|                Generated by the CfdOF workbench for FreeCAD                 |
|                      https://github.com/jaheyns/CfdOF                       |
|                                                                             |
\*---------------------------------------------------------------------------*/
FoamFile
{
    version     2.0;
    format      ascii;
    class       volScalarField;
    object      p;
}
// * * * * * * * * * * * * * * * * * * * * * * * * * * * * * * * * * * * * * //

dimensions      [1 -1 -2 0 0 0 0];

internalField   uniform 0.0;

boundaryField
{

    inlet
    {
        type        characteristicVelocityInletOutletPressure;
        U           ( -700.0 0.0 0.0 );
        p           100000.0;
        T           298.15;
        value       $internalField;
    }

    open
    {
        type        characteristicPressureInletOutletPressure;
        U           ( 0.0 0.0 0.0 );
        p           100000.0;
        T           298.15;
        value       $internalField;
    }

    outlet
    {
        type        characteristicPressureInletOutletPressure;
        U           ( 0.0 0.0 0.0 );
        p           100000.0;
        T           298.15;
        value       $internalField;
    }

    bullet
    {
        type        characteristicWallPressure;
        value       $internalField;
    }

    defaultFaces
    {
        type        characteristicWallPressure;
        value       $internalField;
    }

}

// ************************************************************************* //
