/*--------------------------------*- C++ -*----------------------------------*\
|                                                                             |
|                Generated by the CfdOF workbench for FreeCAD                 |
|                      https://github.com/jaheyns/CfdOF                       |
|                                                                             |
\*---------------------------------------------------------------------------*/
FoamFile
{
    version     2.0;
    format      ascii;
    class       volScalarField;
    object      T;
}
// * * * * * * * * * * * * * * * * * * * * * * * * * * * * * * * * * * * * * //

dimensions      [0 0 0 1 0 0 0];

internalField   uniform 298.15;

boundaryField
{

    inlet
    {
        type        characteristicVelocityInletOutletTemperature;
        U           ( -700.0 0.0 0.0 );
        p           100000.0;
        T           298.15;
        value       uniform 298.15;
    }

    open
    {
        type        characteristicPressureInletOutletTemperature;
        U           ( 0.0 0.0 0.0 );
        p           100000.0;
        T           298.15;
    }

    outlet
    {
        type        characteristicPressureInletOutletTemperature;
        U           ( 0.0 0.0 0.0 );
        p           100000.0;
        T           298.15;
        value       $internalField;
    }

    bullet
    {
        type        boundaryCorrectedFixedValue;
        value       uniform 298.15;
    }

    defaultFaces
    {
        type        characteristicWallTemperature;
        value       $internalField;
    }

}

// ************************************************************************* //
