/*--------------------------------*- C++ -*----------------------------------*\
|                                                                             |
|                Generated by the CfdOF workbench for FreeCAD                 |
|                      https://github.com/jaheyns/CfdOF                       |
|                                                                             |
\*---------------------------------------------------------------------------*/
FoamFile
{
    version     2.0;
    format      ascii;
    class       volVectorField;
    object      U;
}
// * * * * * * * * * * * * * * * * * * * * * * * * * * * * * * * * * * * * * //

dimensions      [0 1 -1 0 0 0 0];

internalField   uniform (-700.0 0.0 0.0);

boundaryField
{

    inlet
    {
        type                characteristicVelocityInletOutletVelocity;
        U                   ( -700.0 0.0 0.0 );
        p                   100000.0;
        T                   298.15;
        value               uniform ( -700.0 0.0 0.0 );
    }

    open
    {
        type        characteristicPressureInletOutletVelocity;
        U           ( 0.0 0.0 0.0 );
        p           100000.0;
        T           298.15;
        value       $internalField;
    }

    outlet
    {
        type                characteristicPressureInletOutletVelocity;
        U                   ( 0.0 0.0 0.0 );
        p                   100000.0;
        T                   298.15;
        value               $internalField;
    }

    bullet
    {
        type        boundaryCorrectedFixedValue;
        value       uniform (0 0 0);
    }

    defaultFaces
    {
        type        slip;
        value       $internalField;
    }

}

// ************************************************************************* //
