/*--------------------------------*- C++ -*----------------------------------*\
| =========                 |                                                 |
| \\      /  F ield         | OpenFOAM: The Open Source CFD Toolbox           |
|  \\    /   O peration     | Version:  2212                                  |
|   \\  /    A nd           | Website:  www.openfoam.com                      |
|    \\/     M anipulation  |                                                 |
\*---------------------------------------------------------------------------*/
FoamFile
{
    version     2.0;
    format      ascii;
    arch        "LSB;label=32;scalar=64";
    class       featureEdgeMesh;
    location    "constant/triSurface";
    object      Cut_Geometry.eMesh;
}
// * * * * * * * * * * * * * * * * * * * * * * * * * * * * * * * * * * * * * //


// points:

124
(
(0.132475003600121 0.023760000243783 -0.023760000243783)
(0.132475003600121 0.023760000243783 0.023760000243783)
(0.132475003600121 -0.023760000243783 -0.023760000243783)
(0.132475003600121 -0.023760000243783 0.023760000243783)
(-0.307524979114532 -0.023760000243783 0.023760000243783)
(-0.307524979114532 -0.023760000243783 -0.023760000243783)
(-0.307524979114532 0.023760000243783 -0.023760000243783)
(-0.307524979114532 0.023760000243783 0.023760000243783)
(0.0347632393240929 0.000516923028044403 0.00201328215189278)
(0.0347651392221451 0.00105342257302254 -0.00182458152994514)
(0.0347632393240929 -0.000516923028044403 -0.00201328215189278)
(0.0347651392221451 -0.00105342257302254 0.00182458152994514)
(0.0347651392221451 0.000523951137438416 0.00204065488651395)
(0.0347748883068562 0.00102779222652316 0.00186954718083143)
(0.0347632393240929 0.0011922272387892 0.00170267687644809)
(0.0347651392221451 0.00206952705048025 0.000394783448427916)
(0.0347748883068562 0.00212922948412597 -0.000133959765662439)
(0.0347632393240929 0.00103929231408983 -0.00180010718759149)
(0.0347651392221451 -0.000523951137438416 -0.00204065488651395)
(0.0347748883068562 -0.00102779222652316 -0.00186954718083143)
(0.0347632393240929 -0.0011922272387892 -0.00170267687644809)
(0.0347651392221451 -0.00206952705048025 -0.000394783448427916)
(0.0347748883068562 -0.00212922948412597 0.000133959765662439)
(0.0347632393240929 -0.00103929231408983 0.00180010718759149)
(0.0348064973950386 0 0.00217125797644258)
(0.0348064973950386 0.000272130768280476 0.00215413700789213)
(0.0348064973950386 0.000539969885721803 0.00210304372012615)
(0.0348064973950386 0.000799293338786811 0.00201878463849425)
(0.0348064973950386 0.00104601145721972 0.00190268782898784)
(0.0348064973950386 0.00127623334992677 0.00175658450461924)
(0.0348064973950386 0.00148632819764316 0.00158277875743806)
(0.0348064973950386 0.00167298293672502 0.00138401181902736)
(0.0348064973950386 0.00183325365651399 0.00116341817192733)
(0.0348064973950386 0.00196461286395788 0.000924476596992463)
(0.0348064973950386 0.00206498894840479 0.000670955574605614)
(0.0348064973950386 0.00213279901072383 0.000406853127060458)
(0.0348064973950386 0.00216697342693806 0.000136334405397065)
(0.0348064973950386 0.00216697342693806 -0.000136334405397065)
(0.0348064973950386 0.00213279901072383 -0.000406853127060458)
(0.0348064973950386 0.00206498894840479 -0.000670955574605614)
(0.0348064973950386 0.00196461286395788 -0.000924476596992463)
(0.0348064973950386 0.00183325365651399 -0.00116341817192733)
(0.0348064973950386 0.00167298293672502 -0.00138401181902736)
(0.0348064973950386 0.00148632819764316 -0.00158277875743806)
(0.0348064973950386 0.00127623334992677 -0.00175658450461924)
(0.0348064973950386 0.00104601145721972 -0.00190268782898784)
(0.0348064973950386 0.000799293338786811 -0.00201878463849425)
(0.0348064973950386 0.000539969885721803 -0.00210304372012615)
(0.0348064973950386 0.000272130768280476 -0.00215413700789213)
(0.0348064973950386 0 -0.00217125797644258)
(0.0348064973950386 -0.000272130768280476 -0.00215413700789213)
(0.0348064973950386 -0.000539969885721803 -0.00210304372012615)
(0.0348064973950386 -0.000799293338786811 -0.00201878463849425)
(0.0348064973950386 -0.00104601145721972 -0.00190268782898784)
(0.0348064973950386 -0.00127623334992677 -0.00175658450461924)
(0.0348064973950386 -0.00148632819764316 -0.00158277875743806)
(0.0348064973950386 -0.00167298293672502 -0.00138401181902736)
(0.0348064973950386 -0.00183325365651399 -0.00116341817192733)
(0.0348064973950386 -0.00196461286395788 -0.000924476596992463)
(0.0348064973950386 -0.00206498894840479 -0.000670955574605614)
(0.0348064973950386 -0.00213279901072383 -0.000406853127060458)
(0.0348064973950386 -0.00216697342693806 -0.000136334405397065)
(0.0348064973950386 -0.00216697342693806 0.000136334405397065)
(0.0348064973950386 -0.00213279901072383 0.000406853127060458)
(0.0348064973950386 -0.00206498894840479 0.000670955574605614)
(0.0348064973950386 -0.00196461286395788 0.000924476596992463)
(0.0348064973950386 -0.00183325365651399 0.00116341817192733)
(0.0348064973950386 -0.00167298293672502 0.00138401181902736)
(0.0348064973950386 -0.00148632819764316 0.00158277875743806)
(0.0348064973950386 -0.00127623334992677 0.00175658450461924)
(0.0348064973950386 -0.00104601145721972 0.00190268782898784)
(0.0348064973950386 -0.000799293338786811 0.00201878463849425)
(0.0348064973950386 -0.000539969885721803 0.00210304372012615)
(0.0348064973950386 -0.000272130768280476 0.00215413700789213)
(0.0347776375710964 0.000526417861692607 0.00196461821906269)
(0.0347776375710964 0.00101696117781103 0.00176142842974514)
(0.0347917005419731 0.00126740231644362 0.00174442958086729)
(0.0347776375710964 0.00184335967060179 0.000859572784975171)
(0.0347632393240929 0.00188075972255319 0.000885018322151154)
(0.0347776375710964 0.00200302270241082 0.000353186944266781)
(0.0347776375710964 0.00202618259936571 -0.000177268011611886)
(0.0347917005419731 0.00103877345100045 -0.00188952183816582)
(0.0347776375710964 -0.000526417861692607 -0.00196461821906269)
(0.0347776375710964 -0.00101696117781103 -0.00176142842974514)
(0.0347917005419731 -0.00126740231644362 -0.00174442958086729)
(0.0347776375710964 -0.00184335967060179 -0.000859572784975171)
(0.0347632393240929 -0.00188075972255319 -0.000885018322151154)
(0.0347776375710964 -0.00200302270241082 -0.000353186944266781)
(0.0347776375710964 -0.00202618259936571 0.000177268011611886)
(0.0347917005419731 -0.00103877345100045 0.00188952183816582)
(0.0347651392221451 0.000720583484508097 0.00197978690266609)
(0.0347651392221451 0.00101498048752546 0.00184624257963151)
(0.0347632393240929 0.00100136583205312 0.00182147766463459)
(0.0347748883068562 0.0012236904585734 0.00174761121161282)
(0.0347651392221451 0.00120843667536974 0.00172582664526999)
(0.0347632393240929 0.00133608852047473 0.00159228825941682)
(0.0347748883068562 0.00163430930115283 0.00137134839314967)
(0.0347917005419731 0.00166140648070723 0.00137443491257727)
(0.0347693413496017 0.0018557325238362 0.000873241398949176)
(0.0347632393240929 0.00204176735132933 0.000389487948268652)
(0.0347651392221451 0.00209882808849216 0.000183623662451282)
(0.0347632393240929 0.0020706751383841 0.000181160605279729)
(0.0347632393240929 0.00207858462817967 0)
(0.0347651392221451 0.00210268772207201 -0.000132289904286154)
(0.0347748883068562 0.00210102740675211 -0.000370467838365585)
(0.0347651392221451 0.00123837252613157 -0.00170447363052517)
(0.0347632393240929 0.000878447899594903 -0.00188383762724698)
(0.0347651392221451 -0.000720583484508097 -0.00197978690266609)
(0.0347651392221451 -0.00101498048752546 -0.00184624257963151)
(0.0347632393240929 -0.00100136583205312 -0.00182147766463459)
(0.0347748883068562 -0.0012236904585734 -0.00174761121161282)
(0.0347651392221451 -0.00120843667536974 -0.00172582664526999)
(0.0347632393240929 -0.00133608852047473 -0.00159228825941682)
(0.0347748883068562 -0.00163430930115283 -0.00137134839314967)
(0.0347917005419731 -0.00166140648070723 -0.00137443491257727)
(0.0347693413496017 -0.0018557325238362 -0.000873241398949176)
(0.0347632393240929 -0.00204176735132933 -0.000389487948268652)
(0.0347651392221451 -0.00209882808849216 -0.000183623662451282)
(0.0347632393240929 -0.0020706751383841 -0.000181160605279729)
(0.0347632393240929 -0.00207858462817967 0)
(0.0347651392221451 -0.00210268772207201 0.000132289904286154)
(0.0347748883068562 -0.00210102740675211 0.000370467838365585)
(0.0347651392221451 -0.00123837252613157 0.00170447363052517)
(0.0347632393240929 -0.000878447899594903 0.00188383762724698)
)


// edges:

114
(
(2 0)
(0 1)
(3 2)
(1 3)
(4 5)
(5 6)
(6 7)
(7 4)
(3 4)
(5 2)
(6 0)
(7 1)
(24 25)
(25 26)
(26 27)
(27 28)
(28 29)
(29 30)
(30 31)
(31 32)
(32 33)
(33 34)
(34 35)
(35 36)
(36 37)
(37 38)
(38 39)
(39 40)
(40 41)
(41 42)
(42 43)
(43 44)
(44 45)
(45 46)
(46 47)
(47 48)
(48 49)
(49 50)
(50 51)
(51 52)
(52 53)
(53 54)
(54 55)
(55 56)
(56 57)
(57 58)
(58 59)
(59 60)
(60 61)
(61 62)
(62 63)
(63 64)
(64 65)
(65 66)
(66 67)
(67 68)
(68 69)
(69 70)
(70 71)
(71 72)
(72 73)
(73 24)
(74 12)
(75 13)
(14 76)
(77 78)
(79 15)
(80 16)
(17 81)
(82 18)
(83 19)
(20 84)
(85 86)
(87 21)
(88 22)
(23 89)
(8 12)
(8 74)
(12 90)
(13 91)
(92 75)
(93 13)
(94 14)
(14 95)
(96 97)
(98 78)
(98 77)
(99 15)
(100 15)
(101 102)
(103 16)
(16 104)
(105 9)
(9 17)
(17 106)
(10 18)
(10 82)
(18 107)
(19 108)
(109 83)
(110 19)
(20 111)
(20 112)
(113 114)
(115 86)
(115 85)
(116 21)
(21 117)
(118 119)
(120 22)
(22 121)
(11 122)
(11 23)
(23 123)
)

// * * * * * * * * * * * * * * * * * * * * * * * * * * * * * * * * * * * * * //


// ************************************************************************* //
