/*--------------------------------*- C++ -*----------------------------------*\
| =========                 |                                                 |
| \\      /  F ield         | OpenFOAM: The Open Source CFD Toolbox           |
|  \\    /   O peration     | Version:  2212                                  |
|   \\  /    A nd           | Website:  www.openfoam.com                      |
|    \\/     M anipulation  |                                                 |
\*---------------------------------------------------------------------------*/
FoamFile
{
    version     2.0;
    format      ascii;
    arch        "LSB;label=32;scalar=64";
    class       extendedFeatureEdgeMesh;
    location    "constant/extendedFeatureEdgeMesh";
    object      Cut_Geometry.extendedFeatureEdgeMesh;
}
// * * * * * * * * * * * * * * * * * * * * * * * * * * * * * * * * * * * * * //

// points

124
(
(0.132475003600121 0.023760000243783 -0.023760000243783)
(0.132475003600121 0.023760000243783 0.023760000243783)
(0.132475003600121 -0.023760000243783 -0.023760000243783)
(0.132475003600121 -0.023760000243783 0.023760000243783)
(-0.307524979114532 -0.023760000243783 0.023760000243783)
(-0.307524979114532 -0.023760000243783 -0.023760000243783)
(-0.307524979114532 0.023760000243783 -0.023760000243783)
(-0.307524979114532 0.023760000243783 0.023760000243783)
(0.0347632393240929 0.000516923028044403 0.00201328215189278)
(0.0347651392221451 0.00105342257302254 -0.00182458152994514)
(0.0347632393240929 -0.000516923028044403 -0.00201328215189278)
(0.0347651392221451 -0.00105342257302254 0.00182458152994514)
(0.0347651392221451 0.000523951137438416 0.00204065488651395)
(0.0347748883068562 0.00102779222652316 0.00186954718083143)
(0.0347632393240929 0.0011922272387892 0.00170267687644809)
(0.0347651392221451 0.00206952705048025 0.000394783448427916)
(0.0347748883068562 0.00212922948412597 -0.000133959765662439)
(0.0347632393240929 0.00103929231408983 -0.00180010718759149)
(0.0347651392221451 -0.000523951137438416 -0.00204065488651395)
(0.0347748883068562 -0.00102779222652316 -0.00186954718083143)
(0.0347632393240929 -0.0011922272387892 -0.00170267687644809)
(0.0347651392221451 -0.00206952705048025 -0.000394783448427916)
(0.0347748883068562 -0.00212922948412597 0.000133959765662439)
(0.0347632393240929 -0.00103929231408983 0.00180010718759149)
(0.0348064973950386 0 0.00217125797644258)
(0.0348064973950386 0.000272130768280476 0.00215413700789213)
(0.0348064973950386 0.000539969885721803 0.00210304372012615)
(0.0348064973950386 0.000799293338786811 0.00201878463849425)
(0.0348064973950386 0.00104601145721972 0.00190268782898784)
(0.0348064973950386 0.00127623334992677 0.00175658450461924)
(0.0348064973950386 0.00148632819764316 0.00158277875743806)
(0.0348064973950386 0.00167298293672502 0.00138401181902736)
(0.0348064973950386 0.00183325365651399 0.00116341817192733)
(0.0348064973950386 0.00196461286395788 0.000924476596992463)
(0.0348064973950386 0.00206498894840479 0.000670955574605614)
(0.0348064973950386 0.00213279901072383 0.000406853127060458)
(0.0348064973950386 0.00216697342693806 0.000136334405397065)
(0.0348064973950386 0.00216697342693806 -0.000136334405397065)
(0.0348064973950386 0.00213279901072383 -0.000406853127060458)
(0.0348064973950386 0.00206498894840479 -0.000670955574605614)
(0.0348064973950386 0.00196461286395788 -0.000924476596992463)
(0.0348064973950386 0.00183325365651399 -0.00116341817192733)
(0.0348064973950386 0.00167298293672502 -0.00138401181902736)
(0.0348064973950386 0.00148632819764316 -0.00158277875743806)
(0.0348064973950386 0.00127623334992677 -0.00175658450461924)
(0.0348064973950386 0.00104601145721972 -0.00190268782898784)
(0.0348064973950386 0.000799293338786811 -0.00201878463849425)
(0.0348064973950386 0.000539969885721803 -0.00210304372012615)
(0.0348064973950386 0.000272130768280476 -0.00215413700789213)
(0.0348064973950386 0 -0.00217125797644258)
(0.0348064973950386 -0.000272130768280476 -0.00215413700789213)
(0.0348064973950386 -0.000539969885721803 -0.00210304372012615)
(0.0348064973950386 -0.000799293338786811 -0.00201878463849425)
(0.0348064973950386 -0.00104601145721972 -0.00190268782898784)
(0.0348064973950386 -0.00127623334992677 -0.00175658450461924)
(0.0348064973950386 -0.00148632819764316 -0.00158277875743806)
(0.0348064973950386 -0.00167298293672502 -0.00138401181902736)
(0.0348064973950386 -0.00183325365651399 -0.00116341817192733)
(0.0348064973950386 -0.00196461286395788 -0.000924476596992463)
(0.0348064973950386 -0.00206498894840479 -0.000670955574605614)
(0.0348064973950386 -0.00213279901072383 -0.000406853127060458)
(0.0348064973950386 -0.00216697342693806 -0.000136334405397065)
(0.0348064973950386 -0.00216697342693806 0.000136334405397065)
(0.0348064973950386 -0.00213279901072383 0.000406853127060458)
(0.0348064973950386 -0.00206498894840479 0.000670955574605614)
(0.0348064973950386 -0.00196461286395788 0.000924476596992463)
(0.0348064973950386 -0.00183325365651399 0.00116341817192733)
(0.0348064973950386 -0.00167298293672502 0.00138401181902736)
(0.0348064973950386 -0.00148632819764316 0.00158277875743806)
(0.0348064973950386 -0.00127623334992677 0.00175658450461924)
(0.0348064973950386 -0.00104601145721972 0.00190268782898784)
(0.0348064973950386 -0.000799293338786811 0.00201878463849425)
(0.0348064973950386 -0.000539969885721803 0.00210304372012615)
(0.0348064973950386 -0.000272130768280476 0.00215413700789213)
(0.0347776375710964 0.000526417861692607 0.00196461821906269)
(0.0347776375710964 0.00101696117781103 0.00176142842974514)
(0.0347917005419731 0.00126740231644362 0.00174442958086729)
(0.0347776375710964 0.00184335967060179 0.000859572784975171)
(0.0347632393240929 0.00188075972255319 0.000885018322151154)
(0.0347776375710964 0.00200302270241082 0.000353186944266781)
(0.0347776375710964 0.00202618259936571 -0.000177268011611886)
(0.0347917005419731 0.00103877345100045 -0.00188952183816582)
(0.0347776375710964 -0.000526417861692607 -0.00196461821906269)
(0.0347776375710964 -0.00101696117781103 -0.00176142842974514)
(0.0347917005419731 -0.00126740231644362 -0.00174442958086729)
(0.0347776375710964 -0.00184335967060179 -0.000859572784975171)
(0.0347632393240929 -0.00188075972255319 -0.000885018322151154)
(0.0347776375710964 -0.00200302270241082 -0.000353186944266781)
(0.0347776375710964 -0.00202618259936571 0.000177268011611886)
(0.0347917005419731 -0.00103877345100045 0.00188952183816582)
(0.0347651392221451 0.000720583484508097 0.00197978690266609)
(0.0347651392221451 0.00101498048752546 0.00184624257963151)
(0.0347632393240929 0.00100136583205312 0.00182147766463459)
(0.0347748883068562 0.0012236904585734 0.00174761121161282)
(0.0347651392221451 0.00120843667536974 0.00172582664526999)
(0.0347632393240929 0.00133608852047473 0.00159228825941682)
(0.0347748883068562 0.00163430930115283 0.00137134839314967)
(0.0347917005419731 0.00166140648070723 0.00137443491257727)
(0.0347693413496017 0.0018557325238362 0.000873241398949176)
(0.0347632393240929 0.00204176735132933 0.000389487948268652)
(0.0347651392221451 0.00209882808849216 0.000183623662451282)
(0.0347632393240929 0.0020706751383841 0.000181160605279729)
(0.0347632393240929 0.00207858462817967 0)
(0.0347651392221451 0.00210268772207201 -0.000132289904286154)
(0.0347748883068562 0.00210102740675211 -0.000370467838365585)
(0.0347651392221451 0.00123837252613157 -0.00170447363052517)
(0.0347632393240929 0.000878447899594903 -0.00188383762724698)
(0.0347651392221451 -0.000720583484508097 -0.00197978690266609)
(0.0347651392221451 -0.00101498048752546 -0.00184624257963151)
(0.0347632393240929 -0.00100136583205312 -0.00182147766463459)
(0.0347748883068562 -0.0012236904585734 -0.00174761121161282)
(0.0347651392221451 -0.00120843667536974 -0.00172582664526999)
(0.0347632393240929 -0.00133608852047473 -0.00159228825941682)
(0.0347748883068562 -0.00163430930115283 -0.00137134839314967)
(0.0347917005419731 -0.00166140648070723 -0.00137443491257727)
(0.0347693413496017 -0.0018557325238362 -0.000873241398949176)
(0.0347632393240929 -0.00204176735132933 -0.000389487948268652)
(0.0347651392221451 -0.00209882808849216 -0.000183623662451282)
(0.0347632393240929 -0.0020706751383841 -0.000181160605279729)
(0.0347632393240929 -0.00207858462817967 0)
(0.0347651392221451 -0.00210268772207201 0.000132289904286154)
(0.0347748883068562 -0.00210102740675211 0.000370467838365585)
(0.0347651392221451 -0.00123837252613157 0.00170447363052517)
(0.0347632393240929 -0.000878447899594903 0.00188383762724698)
)

// edges

114
(
(2 0)
(0 1)
(3 2)
(1 3)
(4 5)
(5 6)
(6 7)
(7 4)
(3 4)
(5 2)
(6 0)
(7 1)
(24 25)
(25 26)
(26 27)
(27 28)
(28 29)
(29 30)
(30 31)
(31 32)
(32 33)
(33 34)
(34 35)
(35 36)
(36 37)
(37 38)
(38 39)
(39 40)
(40 41)
(41 42)
(42 43)
(43 44)
(44 45)
(45 46)
(46 47)
(47 48)
(48 49)
(49 50)
(50 51)
(51 52)
(52 53)
(53 54)
(54 55)
(55 56)
(56 57)
(57 58)
(58 59)
(59 60)
(60 61)
(61 62)
(62 63)
(63 64)
(64 65)
(65 66)
(66 67)
(67 68)
(68 69)
(69 70)
(70 71)
(71 72)
(72 73)
(73 24)
(74 12)
(75 13)
(14 76)
(77 78)
(79 15)
(80 16)
(17 81)
(82 18)
(83 19)
(20 84)
(85 86)
(87 21)
(88 22)
(23 89)
(8 12)
(8 74)
(12 90)
(13 91)
(92 75)
(93 13)
(94 14)
(14 95)
(96 97)
(98 78)
(98 77)
(99 15)
(100 15)
(101 102)
(103 16)
(16 104)
(105 9)
(9 17)
(17 106)
(10 18)
(10 82)
(18 107)
(19 108)
(109 83)
(110 19)
(20 111)
(20 112)
(113 114)
(115 86)
(115 85)
(116 21)
(21 117)
(118 119)
(120 22)
(22 121)
(11 122)
(11 23)
(23 123)
)

// concaveStart mixedStart nonFeatureStart
8 12 24
// internalStart flatStart openStart multipleStart
76 114 114 114
// normals

186
(
(1 0 -0)
(0 0 -1)
(0 1 0)
(1 0 0)
(0 -1 0)
(0 0 1)
(-0 -1 0)
(-1 0 0)
(0 0 -1)
(-0 1 0)
(-1 -0 -0)
(0 0 1)
(-0.68599777979176 0.0456864820266436 0.726167881058372)
(0.711791092080312 -0.0441033866650195 -0.701005230023138)
(-0.685970736746723 0.136344729720651 0.71474069633998)
(0.711788230234976 -0.131616141011153 -0.689952684409803)
(-0.685991977308366 0.224843056889598 0.691997548288359)
(0.711794165584542 -0.217049361371596 -0.668010958419088)
(-0.685993467597729 0.309800455080294 0.658359051312645)
(0.711787902031168 -0.299065176230185 -0.635545437312296)
(-0.685982190718492 0.389877528068416 0.614348392302219)
(0.711785748830408 -0.376363069286954 -0.593053022788722)
(-0.685969965820984 0.463809000427212 0.560648211550048)
(0.7117838738377 -0.447725948974148 -0.541207161408454)
(-0.685983663480632 0.530409710248848 0.498088298107298)
(0.711787395703924 -0.512023696637472 -0.480822667309606)
(-0.685987500090712 0.5886514764816 0.427680475302916)
(0.711786396756868 -0.568250226040586 -0.412858094260847)
(-0.685987332062966 0.637612594810477 0.350530396953223)
(0.711785880869466 -0.61551479337298 -0.338382031044639)
(-0.685982940568391 0.676521746627137 0.267853937043515)
(0.71178785081693 -0.653069894765716 -0.258568691028348)
(-0.685996937060474 0.704745345199198 0.18094806095593)
(0.711786458594006 -0.680328817618351 -0.174678954886443)
(-0.685985520233034 0.721877742974094 0.0911942444962481)
(0.71178834368622 -0.696855444100057 -0.0880331972641006)
(-0.685985491546668 0.727615217946598 0)
(0.711788394954519 -0.702393964102817 0)
(-0.685997426467882 0.721866606270806 -0.0911928376053273)
(0.711786478734008 -0.696857319088165 0.0880334341298658)
(-0.685983102797831 0.704757978343932 -0.180951304599977)
(0.711787953367942 -0.680327350446245 0.174678578180233)
(-0.685982940568391 0.676521746627137 -0.267853937043515)
(0.711785923796047 -0.653071710420343 0.258569409896947)
(-0.685987332062966 0.637612594810477 -0.350530396953223)
(0.711786270888592 -0.615514447027665 0.338381840639742)
(-0.685987500090712 0.5886514764816 -0.427680475302916)
(0.711787342605155 -0.568249450602153 0.412857530871659)
(-0.685970156377544 0.530418992937264 -0.498097015139407)
(0.711783607502567 -0.512026495027683 0.480825295175179)
(-0.685981651494321 0.463801978052789 -0.560639722966045)
(0.711785648718618 -0.447724802501969 0.541205775563038)
(-0.685982190718492 0.389877528068416 -0.614348392302219)
(0.711787741079115 -0.376361987513753 0.593051318187716)
(-0.685993467597729 0.309800455080294 -0.658359051312645)
(0.711793836336582 -0.299062615712074 0.635539995937867)
(-0.685970919672282 0.22484919167387 -0.692016429261308)
(0.71178820359183 -0.217051228380461 0.668016704496263)
(-0.685997393775062 0.136340020473712 -0.71471600972068)
(0.711791003127545 -0.131615614469217 0.68994992419347)
(-0.68599777979176 0.0456864820266436 -0.726167881058372)
(0.711786581773192 -0.0441036736569283 0.701009791641741)
(-0.68599777979176 -0.0456864820266436 -0.726167881058372)
(0.711791092080312 0.0441033866650195 0.701005230023138)
(-0.685970736746723 -0.136344729720651 -0.71474069633998)
(0.711788230234976 0.131616141011153 0.689952684409803)
(-0.685991977308366 -0.224843056889598 -0.691997548288359)
(0.711794165584542 0.217049361371596 0.668010958419088)
(-0.685993467597729 -0.309800455080294 -0.658359051312645)
(0.711787902031168 0.299065176230185 0.635545437312296)
(-0.685993028264428 -0.389872053231163 -0.614339765343182)
(0.711785748830408 0.376363069286954 0.593053022788722)
(-0.685981651494321 -0.463801978052789 -0.560639722966045)
(0.7117838738377 0.447725948974148 0.541207161408454)
(-0.685983663480632 -0.530409710248848 -0.498088298107298)
(0.711787395703924 0.512023696637472 0.480822667309606)
(-0.685987500090712 -0.5886514764816 -0.427680475302916)
(0.711786396756868 0.568250226040586 0.412858094260847)
(-0.685982265836048 -0.637616780366082 -0.350532697981276)
(0.711785880869466 0.61551479337298 0.338382031044639)
(-0.685982940568391 -0.676521746627137 -0.267853937043515)
(0.71178785081693 0.653069894765716 0.258568691028348)
(-0.685983102797831 -0.704757978343932 -0.180951304599977)
(0.711786458594006 0.680328817618351 0.174678954886443)
(-0.685985520233034 -0.721877742974094 -0.0911942444962481)
(0.71178834368622 0.696855444100057 0.0880331972641006)
(-0.685985491546668 -0.727615217946598 -0)
(0.711788394954519 0.702393964102817 0)
(-0.685997426467882 -0.721866606270806 0.0911928376053273)
(0.711786478734008 0.696857319088165 -0.0880334341298658)
(-0.685983102797831 -0.704757978343932 0.180951304599977)
(0.711787953367942 0.680327350446245 -0.174678578180233)
(-0.685983093779154 -0.676521612326514 0.267853883870131)
(0.711785923796047 0.653071710420343 -0.258569409896947)
(-0.685987332062966 -0.637612594810477 0.350530396953223)
(0.711786270888592 0.615514447027665 -0.338381840639742)
(-0.685983286906518 -0.58865469000214 0.427682810063036)
(0.711787342605155 0.568249450602153 -0.412857530871659)
(-0.685983663480632 -0.530409710248848 0.498088298107298)
(0.711783607502567 0.512026495027683 -0.480825295175179)
(-0.685981651494321 -0.463801978052789 0.560639722966045)
(0.711785648718618 0.447724802501969 -0.541205775563038)
(-0.685993028264428 -0.389872053231163 0.614339765343182)
(0.711787741079115 0.376361987513753 -0.593051318187716)
(-0.685993467597729 -0.309800455080294 0.658359051312645)
(0.711793836336582 0.299062615712074 -0.635539995937867)
(-0.685991977308366 -0.224843056889598 0.691997548288359)
(0.71178820359183 0.217051228380461 -0.668016704496263)
(-0.685997393775062 -0.136340020473712 0.71471600972068)
(0.711791003127545 0.131615614469217 -0.68994992419347)
(-0.68599777979176 -0.0456864820266436 0.726167881058372)
(0.711786581773192 0.0441036736569283 -0.701009791641741)
(0.77323019143442 -0.625063633999051 0.106820056666299)
(0.985228336534282 0.0506388418139882 0.163587385178775)
(0.708923849038337 -0.699757597638853 0.0881265045906768)
(0.999602793323838 0.0148927398674061 0.0239261755912109)
(0.849209561829122 -0.462770024659252 0.254336439337475)
(0.940653791564291 -0.206593942012262 -0.269238532791198)
(0.828161086709544 -0.0602976323303798 0.557237301331684)
(0.951043110844409 0.285325771273812 0.118769548127427)
(0.851084412616172 -0.153999315010604 0.501935786309415)
(0.98510042419051 0.170347893427002 0.0236378819833879)
(0.752767888456819 -0.237883024871014 0.613801411359145)
(0.999600181627423 0.0280761192099785 -0.00334789792698295)
(0.887308942492874 0.366208637868459 0.280310674293196)
(0.940905448941359 -0.156380309451623 0.30040328721283)
(0.77323019143442 0.625063633999051 -0.106820056666299)
(0.985228336534282 -0.0506388418139882 -0.163587385178775)
(0.708923849038337 0.699757597638853 -0.0881265045906768)
(0.999602793323838 -0.0148927398674061 -0.0239261755912109)
(0.849209561829122 0.462770024659252 -0.254336439337475)
(0.940653791564291 0.206593942012262 0.269238532791198)
(0.828161086709544 0.0602976323303798 -0.557237301331684)
(0.951043110844409 -0.285325771273812 -0.118769548127427)
(0.851084412616172 0.153999315010604 -0.501935786309415)
(0.98510042419051 -0.170347893427002 -0.0236378819833879)
(0.752767888456819 0.237883024871014 -0.613801411359145)
(0.999600181627423 -0.0280761192099785 0.00334789792698295)
(0.887308942492874 -0.366208637868459 -0.280310674293196)
(0.940905448941359 0.156380309451623 -0.30040328721283)
(0.997744528249692 -0.0141852602635017 -0.0656097152794927)
(0.956196443887028 -0.144115076153393 0.254792475405189)
(0.938766777620977 -0.101887327498412 -0.329144208106962)
(0.938838838098011 -0.155798978716419 -0.30709658791608)
(0.923719223952373 -0.361163372645495 0.127686387528806)
(0.95445932159348 0.137758621500699 0.264631754756571)
(0.804361551540921 -0.313966530443114 -0.504408080986214)
(0.992710523628288 0.0439304080779955 -0.112231615526779)
(0.976475899662284 0.131265118289604 0.171068074459117)
(0.795396055545174 -0.446856603763094 -0.409468302187717)
(0.830057787196584 -0.533502920008973 0.162415221750337)
(0.976479286337856 0.19107543440099 0.0998918501259497)
(0.901547711230288 0.383791553448976 0.199789308714584)
(0.997744773298005 -0.0654279471573504 -0.0149850287716455)
(0.93875777875176 -0.341307489100131 -0.0473606452365823)
(0.941119970574103 -0.33775101675369 -0.0147462425196155)
(0.976475774694025 0.21542191387982 0.00940534188954992)
(0.938845773921418 -0.344168020236276 0.0108160360824204)
(0.804334144868258 -0.589997439571114 0.0703534270563776)
(0.938746781065802 -0.187686811424393 0.289012355888013)
(0.984970979671077 0.0940700056248644 -0.144855111223373)
(0.992710470980516 -0.120282583492246 0.00761714605832645)
(0.976475869397496 0.0995654609922021 -0.191263157617494)
(0.997744528249692 0.0141852602635017 0.0656097152794927)
(0.956196443887028 0.144115076153393 -0.254792475405189)
(0.938766777620977 0.101887327498412 0.329144208106962)
(0.938838838098011 0.155798978716419 0.30709658791608)
(0.923719223952373 0.361163372645495 -0.127686387528806)
(0.95445932159348 -0.137758621500699 -0.264631754756571)
(0.804361551540921 0.313966530443114 0.504408080986214)
(0.992710523628288 -0.0439304080779955 0.112231615526779)
(0.976475899662284 -0.131265118289604 -0.171068074459117)
(0.795396055545174 0.446856603763094 0.409468302187717)
(0.830057787196584 0.533502920008973 -0.162415221750337)
(0.976479286337856 -0.19107543440099 -0.0998918501259497)
(0.901547711230288 -0.383791553448976 -0.199789308714584)
(0.997744773298005 0.0654279471573504 0.0149850287716455)
(0.93875777875176 0.341307489100131 0.0473606452365823)
(0.941119970574103 0.33775101675369 0.0147462425196155)
(0.976476176431067 -0.215420096321617 -0.0094052625347805)
(0.938845773921418 0.344168020236276 -0.0108160360824204)
(0.804334144868258 0.589997439571114 -0.0703534270563776)
(0.984970979671077 -0.0940700056248644 0.144855111223373)
(0.938747367139132 0.18768594189291 -0.289011016926896)
(0.992710470980516 0.120282583492246 -0.00761714605832645)
(0.976475930320087 -0.0995653335997262 0.191262912899226)
)

// normal volume types

186
(
0
0
0
0
0
0
0
0
0
0
0
0
0
0
0
0
0
0
0
0
0
0
0
0
0
0
0
0
0
0
0
0
0
0
0
0
0
0
0
0
0
0
0
0
0
0
0
0
0
0
0
0
0
0
0
0
0
0
0
0
0
0
0
0
0
0
0
0
0
0
0
0
0
0
0
0
0
0
0
0
0
0
0
0
0
0
0
0
0
0
0
0
0
0
0
0
0
0
0
0
0
0
0
0
0
0
0
0
0
0
0
0
0
0
0
0
0
0
0
0
0
0
0
0
0
0
0
0
0
0
0
0
0
0
0
0
0
0
0
0
0
0
0
0
0
0
0
0
0
0
0
0
0
0
0
0
0
0
0
0
0
0
0
0
0
0
0
0
0
0
0
0
0
0
0
0
0
0
0
0
0
0
0
0
0
0
)

// normalDirections

114
(
2(1 -1)
2(1 -1)
2(1 -1)
2(1 -1)
2(1 -1)
2(1 -1)
2(1 -1)
2(1 -1)
2(1 -1)
2(1 -1)
2(1 -1)
2(1 -1)
2(1 -1)
2(1 -1)
2(1 -1)
2(1 -1)
2(1 -1)
2(1 -1)
2(1 -1)
2(1 -1)
2(1 -1)
2(1 -1)
2(1 -1)
2(1 -1)
2(1 -1)
2(1 -1)
2(1 -1)
2(1 -1)
2(1 -1)
2(1 -1)
2(1 -1)
2(1 -1)
2(1 -1)
2(1 -1)
2(1 -1)
2(1 -1)
2(1 -1)
2(1 -1)
2(1 -1)
2(1 -1)
2(1 -1)
2(1 -1)
2(1 -1)
2(1 -1)
2(1 -1)
2(1 -1)
2(1 -1)
2(1 -1)
2(1 -1)
2(1 -1)
2(1 -1)
2(1 -1)
2(1 -1)
2(1 -1)
2(1 -1)
2(1 -1)
2(1 -1)
2(1 -1)
2(1 -1)
2(1 -1)
2(1 -1)
2(1 -1)
2(1 -1)
2(1 -1)
2(1 -1)
2(1 -1)
2(1 -1)
2(1 -1)
2(1 -1)
2(1 -1)
2(1 -1)
2(1 -1)
2(1 -1)
2(1 -1)
2(1 -1)
2(1 -1)
2(1 -1)
2(1 -1)
2(1 -1)
2(1 -1)
2(1 -1)
2(1 -1)
2(1 -1)
2(1 -1)
2(1 -1)
2(1 -1)
2(1 -1)
2(1 -1)
2(1 -1)
2(1 -1)
2(1 -1)
2(1 -1)
2(1 -1)
2(1 -1)
2(1 -1)
2(1 -1)
2(1 -1)
2(1 -1)
2(1 -1)
2(1 -1)
2(1 -1)
2(1 -1)
2(1 -1)
2(1 -1)
2(1 -1)
2(1 -1)
2(1 -1)
2(1 -1)
2(1 -1)
2(1 -1)
2(1 -1)
2(1 -1)
2(1 -1)
2(1 -1)
)

// edgeNormals

114
(
2(0 1)
2(0 2)
2(3 4)
2(3 5)
2(6 7)
2(8 7)
2(9 10)
2(11 10)
2(6 11)
2(4 1)
2(8 2)
2(9 5)
2(12 13)
2(14 15)
2(16 17)
2(18 19)
2(20 21)
2(22 23)
2(24 25)
2(26 27)
2(28 29)
2(30 31)
2(32 33)
2(34 35)
2(36 37)
2(38 39)
2(40 41)
2(42 43)
2(44 45)
2(46 47)
2(48 49)
2(50 51)
2(52 53)
2(54 55)
2(56 57)
2(58 59)
2(60 61)
2(62 63)
2(64 65)
2(66 67)
2(68 69)
2(70 71)
2(72 73)
2(74 75)
2(76 77)
2(78 79)
2(80 81)
2(82 83)
2(84 85)
2(86 87)
2(88 89)
2(90 91)
2(92 93)
2(94 95)
2(96 97)
2(98 99)
2(100 101)
2(102 103)
2(104 105)
2(106 107)
2(108 109)
2(110 111)
2(112 113)
2(114 115)
2(116 117)
2(118 119)
2(120 121)
2(122 123)
2(124 125)
2(126 127)
2(128 129)
2(130 131)
2(132 133)
2(134 135)
2(136 137)
2(138 139)
2(140 112)
2(112 141)
2(142 113)
2(114 143)
2(144 145)
2(115 146)
2(116 147)
2(117 148)
2(149 150)
2(151 118)
2(118 152)
2(153 120)
2(121 154)
2(155 156)
2(157 122)
2(158 123)
2(159 160)
2(124 161)
2(125 162)
2(163 126)
2(126 164)
2(165 127)
2(128 166)
2(167 168)
2(129 169)
2(170 130)
2(131 171)
2(172 173)
2(174 132)
2(132 175)
2(176 134)
2(177 135)
2(178 179)
2(180 136)
2(181 137)
2(182 183)
2(138 184)
2(139 185)
)

// featurePointNormals

24
(
3(0 1 2)
3(0 2 5)
3(0 1 4)
3(3 4 5)
3(6 7 11)
3(6 7 8)
3(8 7 9)
3(9 10 11)
3(140 112 141)
4(159 160 124 161)
3(163 126 164)
4(182 183 138 184)
4(112 113 140 142)
4(114 115 143 146)
4(116 117 147 148)
4(120 121 153 154)
4(122 123 157 158)
4(124 125 161 162)
4(126 127 163 165)
4(128 129 166 169)
4(130 131 170 171)
4(134 135 176 177)
4(136 137 180 181)
4(138 139 184 185)
)

// featurePointEdges

24
(
3(0 10 1)
3(3 11 1)
3(2 9 0)
3(2 8 3)
3(8 7 4)
3(9 5 4)
3(10 6 5)
3(11 7 6)
2(76 77)
2(92 93)
2(95 96)
2(111 112)
3(76 62 78)
3(79 63 81)
3(82 83 64)
3(87 66 88)
3(90 67 91)
3(93 94 68)
3(95 69 97)
3(98 70 100)
3(101 71 102)
3(106 73 107)
3(109 74 110)
3(112 113 75)
)

// regionEdges
8(0 1 2 3 4 5 6 7)


// ************************************************************************* //
