/*--------------------------------*- C++ -*----------------------------------*\
| =========                 |                                                 |
| \\      /  F ield         | OpenFOAM: The Open Source CFD Toolbox           |
|  \\    /   O peration     | Version:  2212                                  |
|   \\  /    A nd           | Website:  www.openfoam.com                      |
|    \\/     M anipulation  |                                                 |
\*---------------------------------------------------------------------------*/
FoamFile
{
    version     2.0;
    format      ascii;
    arch        "LSB;label=32;scalar=64";
    class       extendedFeatureEdgeMesh;
    location    "constant/extendedFeatureEdgeMesh";
    object      MeshRefinement.extendedFeatureEdgeMesh;
}
// * * * * * * * * * * * * * * * * * * * * * * * * * * * * * * * * * * * * * //

// points
8((0.0500000007450581 0.100000001490116 0.0500000007450581) (0.0500000007450581 0.100000001490116 -0.0500000007450581) (0.0500000007450581 -0.100000001490116 -0.0500000007450581) (0.0500000007450581 -0.100000001490116 0.0500000007450581) (-0.0500000007450581 0.100000001490116 0.0500000007450581) (-0.0500000007450581 -0.100000001490116 0.0500000007450581) (-0.0500000007450581 0.100000001490116 -0.0500000007450581) (-0.0500000007450581 -0.100000001490116 -0.0500000007450581))
// edges

12
(
(1 2)
(3 0)
(5 4)
(7 6)
(0 1)
(2 3)
(4 0)
(3 5)
(6 4)
(5 7)
(1 6)
(7 2)
)

// concaveStart mixedStart nonFeatureStart
0 0 8
// internalStart flatStart openStart multipleStart
0 4 4 12
// normals
8((-1 0 -0) (-1 -0 0) (0 0 -1) (0 0 -1) (1 0 -0) (1 0 0) (0 0 1) (0 0 1))
// normal volume types

8
(
0
0
0
0
0
0
0
0
)

// normalDirections

12
(
2(1 -1)
2(1 -1)
2(1 -1)
2(1 -1)
1(1)
1(1)
1(1)
1(1)
1(1)
1(1)
1(1)
1(1)
)

// edgeNormals

12
(
2(0 7)
2(1 2)
2(3 4)
2(5 6)
1(0)
1(1)
1(2)
1(3)
1(4)
1(5)
1(6)
1(7)
)

// featurePointNormals

8
(
2(1 2)
2(0 7)
2(0 7)
2(1 2)
2(3 4)
2(3 4)
2(5 6)
2(5 6)
)

// featurePointEdges

8
(
3(1 4 6)
3(0 4 10)
3(0 5 11)
3(1 5 7)
3(2 6 8)
3(2 7 9)
3(3 8 10)
3(3 9 11)
)

// regionEdges
8(4 5 6 7 8 9 10 11)


// ************************************************************************* //
