/*--------------------------------*- C++ -*----------------------------------*\
| =========                 |                                                 |
| \\      /  F ield         | OpenFOAM: The Open Source CFD Toolbox           |
|  \\    /   O peration     | Version:  2212                                  |
|   \\  /    A nd           | Website:  www.openfoam.com                      |
|    \\/     M anipulation  |                                                 |
\*---------------------------------------------------------------------------*/
FoamFile
{
    version     2.0;
    format      ascii;
    arch        "LSB;label=32;scalar=64";
    class       extendedFeatureEdgeMesh;
    location    "constant/extendedFeatureEdgeMesh";
    object      Pad_Geometry.extendedFeatureEdgeMesh;
}
// * * * * * * * * * * * * * * * * * * * * * * * * * * * * * * * * * * * * * //

// points

16
(
(-5 0.100000001490116 -2)
(-5 -0.100000001490116 2)
(-5 0.100000001490116 2)
(-5 -0.100000001490116 -2)
(20 0.100000001490116 2)
(20 -0.100000001490116 2)
(20 0.100000001490116 -2)
(20 -0.100000001490116 -2)
(0.0500000007450581 0.100000001490116 -0.0500000007450581)
(-0.0500000007450581 0.100000001490116 -0.0500000007450581)
(-0.0500000007450581 -0.100000001490116 -0.0500000007450581)
(0.0500000007450581 -0.100000001490116 -0.0500000007450581)
(0.0500000007450581 0.100000001490116 0.0500000007450581)
(0.0500000007450581 -0.100000001490116 0.0500000007450581)
(-0.0500000007450581 0.100000001490116 0.0500000007450581)
(-0.0500000007450581 -0.100000001490116 0.0500000007450581)
)

// edges

24
(
(1 2)
(2 0)
(0 3)
(3 1)
(4 2)
(5 4)
(1 5)
(0 6)
(6 7)
(7 3)
(8 9)
(10 11)
(12 8)
(11 13)
(14 12)
(13 15)
(9 14)
(15 10)
(6 4)
(5 7)
(9 10)
(11 8)
(13 12)
(15 14)
)

// concaveStart mixedStart nonFeatureStart
8 8 16
// internalStart flatStart openStart multipleStart
20 24 24 24
// normals

32
(
(-1 0 0)
(0 0 1)
(0 1 0)
(-1 0 0)
(0 0 -1)
(0 -1 0)
(-0 1 0)
(0 0 1)
(1 0 -0)
(-0 -1 0)
(0 1 0)
(0 0 -1)
(1 0 0)
(0 -1 0)
(0 0 1)
(0 1 0)
(0 0 1)
(0 -1 0)
(-1 0 -0)
(0 1 0)
(-1 -0 0)
(0 -1 0)
(0 0 -1)
(0 1 0)
(0 0 -1)
(0 -1 0)
(1 0 -0)
(0 1 0)
(1 0 0)
(0 -1 0)
(0 1 0)
(0 -1 0)
)

// normal volume types

32
(
0
0
0
0
0
0
0
0
0
0
0
0
0
0
0
0
0
0
0
0
0
0
0
0
0
0
0
0
0
0
0
0
)

// normalDirections

24
(
2(1 -1)
2(1 -1)
2(1 -1)
2(1 -1)
2(1 -1)
2(1 -1)
2(1 -1)
2(1 -1)
2(1 -1)
2(1 -1)
2(1 -1)
2(1 -1)
2(1 -1)
2(1 -1)
2(1 -1)
2(1 -1)
2(1 -1)
2(1 -1)
2(1 -1)
2(1 -1)
2(1 -1)
2(1 -1)
2(1 -1)
2(1 -1)
)

// edgeNormals

24
(
2(0 1)
2(0 2)
2(3 4)
2(3 5)
2(1 6)
2(7 8)
2(7 9)
2(4 10)
2(11 12)
2(11 13)
2(14 15)
2(16 17)
2(18 19)
2(20 21)
2(22 23)
2(24 25)
2(26 27)
2(28 29)
2(8 30)
2(12 31)
2(14 28)
2(16 18)
2(20 22)
2(24 26)
)

// featurePointNormals

16
(
3(0 2 4)
3(0 1 5)
3(0 1 2)
3(3 4 5)
3(1 6 8)
3(7 8 9)
3(4 10 12)
3(11 12 13)
3(14 15 18)
3(14 15 26)
3(16 17 28)
3(16 17 20)
3(18 19 22)
3(20 21 24)
3(22 23 26)
3(24 25 28)
)

// featurePointEdges

16
(
3(2 7 1)
3(3 6 0)
3(0 4 1)
3(2 9 3)
3(5 18 4)
3(5 19 6)
3(8 18 7)
3(8 19 9)
3(21 12 10)
3(20 16 10)
3(11 17 20)
3(21 13 11)
3(22 14 12)
3(22 15 13)
3(23 16 14)
3(23 17 15)
)

// regionEdges

20
(
0
1
2
3
4
5
6
7
8
9
10
11
12
13
14
15
16
17
18
19
)



// ************************************************************************* //
